Version 4
SHEET 1 1944 2280
WIRE 1776 336 1616 336
WIRE 1616 368 1616 336
WIRE 1776 384 1776 336
WIRE 32 448 0 448
WIRE 128 448 96 448
WIRE 1776 480 1776 448
WIRE 384 496 368 496
WIRE 480 496 480 448
WIRE 480 496 448 496
WIRE 512 496 480 496
WIRE 592 496 576 496
WIRE 128 512 128 448
WIRE -336 544 -336 528
WIRE 368 544 368 496
WIRE 368 544 320 544
WIRE 592 544 592 496
WIRE 656 544 592 544
WIRE 1824 560 1616 560
WIRE 368 576 368 544
WIRE 384 576 368 576
WIRE 480 576 448 576
WIRE 512 576 480 576
WIRE 592 576 592 544
WIRE 592 576 576 576
WIRE 480 592 480 576
WIRE 1824 592 1824 560
WIRE 1616 624 1616 560
WIRE 128 672 128 592
WIRE 128 672 0 672
WIRE 320 672 320 544
WIRE 432 672 320 672
WIRE 656 672 656 544
WIRE 656 672 512 672
WIRE 1824 688 1824 672
WIRE 1920 688 1824 688
WIRE 1824 704 1824 688
WIRE 32 720 0 720
WIRE 128 720 96 720
WIRE 128 784 128 720
WIRE 128 944 128 864
WIRE 128 944 0 944
WIRE 336 1392 176 1392
WIRE 704 1392 544 1392
WIRE 864 1392 704 1392
WIRE 176 1456 176 1392
WIRE 544 1456 544 1392
WIRE 704 1456 704 1392
WIRE 864 1520 864 1392
WIRE 336 1568 336 1392
WIRE 704 1568 704 1536
WIRE 176 1584 176 1536
WIRE 304 1584 176 1584
WIRE 544 1584 544 1536
WIRE 672 1584 544 1584
WIRE 176 1632 176 1584
WIRE 336 1632 336 1600
WIRE 704 1712 704 1600
WIRE 864 1712 864 1600
WIRE 864 1712 704 1712
WIRE 176 1728 176 1712
WIRE 336 1728 336 1712
WIRE 704 1728 704 1712
WIRE 224 1968 128 1968
WIRE 320 1968 224 1968
WIRE 368 1968 320 1968
WIRE 480 1968 448 1968
WIRE 608 1968 480 1968
WIRE 128 2032 128 1968
WIRE 480 2032 480 1968
WIRE 224 2048 224 1968
WIRE 320 2048 320 1968
WIRE 608 2048 608 1968
WIRE 128 2192 128 2112
WIRE 224 2192 224 2128
WIRE 224 2192 128 2192
WIRE 320 2192 320 2128
WIRE 320 2192 224 2192
WIRE 480 2192 480 2112
WIRE 480 2192 320 2192
WIRE 608 2192 608 2128
WIRE 608 2192 480 2192
WIRE 320 2208 320 2192
FLAG 0 672 0
FLAG -336 528 Vin
FLAG -336 624 0
FLAG 0 448 Vin
FLAG 480 592 0
FLAG 480 448 Vin
FLAG 0 944 0
FLAG 0 720 Vin
FLAG 1776 480 0
FLAG 1616 448 0
FLAG 1824 768 0
FLAG 1616 704 0
FLAG -96 1568 0
FLAG -96 1488 VCC
FLAG 176 1728 0
FLAG 336 1728 0
FLAG 336 1392 VCC
FLAG 704 1728 0
FLAG 320 2208 0
FLAG 320 1968 vbe+
FLAG 480 1968 vbe-
FLAG 656 2064 vbe+
FLAG 656 2112 vbe-
SYMBOL voltage -336 528 R0
WINDOW 3 -202 53 Left 2
WINDOW 123 0 0 Left 0
WINDOW 39 0 0 Left 0
SYMATTR Value SINE(0 5 100)
SYMATTR InstName V1
SYMBOL diode 32 464 R270
WINDOW 0 32 32 VTop 2
WINDOW 3 0 32 VBottom 2
SYMATTR InstName D1
SYMATTR Value Dideal
SYMBOL res 112 496 R0
SYMATTR InstName R1
SYMATTR Value 5k
SYMBOL diode 384 512 R270
WINDOW 0 32 32 VTop 2
WINDOW 3 0 32 VBottom 2
SYMATTR InstName D2
SYMATTR Value Dideal
SYMBOL diode 512 512 R270
WINDOW 0 32 32 VTop 2
WINDOW 3 0 32 VBottom 2
SYMATTR InstName D3
SYMATTR Value Dideal
SYMBOL diode 384 592 R270
WINDOW 0 32 32 VTop 2
WINDOW 3 0 32 VBottom 2
SYMATTR InstName D4
SYMATTR Value Dideal
SYMBOL diode 512 592 R270
WINDOW 0 32 32 VTop 2
WINDOW 3 0 32 VBottom 2
SYMATTR InstName D5
SYMATTR Value Dideal
SYMBOL res 528 656 R90
WINDOW 0 0 56 VBottom 2
WINDOW 3 32 56 VTop 2
SYMATTR InstName R2
SYMATTR Value 5k
SYMBOL diode 32 736 R270
WINDOW 0 32 32 VTop 2
WINDOW 3 0 32 VBottom 2
SYMATTR InstName D6
SYMATTR Value Dreal
SYMBOL res 112 768 R0
SYMATTR InstName R3
SYMATTR Value 5k
SYMBOL zener 1792 448 R180
WINDOW 0 24 64 Left 2
WINDOW 3 24 0 Left 2
SYMATTR InstName D7
SYMATTR Value Zideal
SYMBOL voltage 1616 352 R0
WINDOW 123 0 0 Left 0
WINDOW 39 0 0 Left 0
SYMATTR InstName V2
SYMATTR Value 1
SYMBOL voltage 1616 608 R0
WINDOW 3 -228 56 Left 2
WINDOW 123 0 0 Left 0
WINDOW 39 0 0 Left 0
SYMATTR Value SINE(12 0.5 1k)
SYMATTR InstName V3
SYMBOL res 1808 576 R0
SYMATTR InstName R4
SYMATTR Value 2k
SYMBOL zener 1840 768 R180
WINDOW 0 81 60 Left 2
WINDOW 3 42 32 Left 2
SYMATTR InstName D8
SYMATTR Value Zideal
SYMBOL voltage -96 1472 R0
WINDOW 123 0 0 Left 0
WINDOW 39 0 0 Left 0
SYMATTR InstName V4
SYMATTR Value 15
SYMBOL res 160 1440 R0
SYMATTR InstName R7
SYMATTR Value 100k
SYMBOL res 160 1616 R0
SYMATTR InstName R8
SYMATTR Value 100k
SYMBOL res 320 1616 R0
SYMATTR InstName R9
SYMATTR Value 3.5k
SYMBOL NPNActive 320 1584 R0
SYMATTR InstName X1
SYMATTR SpiceLine Beta=150
SYMBOL res 528 1440 R0
SYMATTR InstName R5
SYMATTR Value 10k
SYMBOL NPNSaturation 688 1584 R0
WINDOW 39 20 2 Left 0
SYMATTR InstName X2
SYMATTR SpiceLine Beta=100
SYMBOL voltage 864 1504 R0
WINDOW 123 0 0 Left 0
WINDOW 39 0 0 Left 0
SYMATTR InstName V5
SYMATTR Value 10
SYMBOL res 688 1440 R0
SYMATTR InstName R6
SYMATTR Value 1k
SYMBOL voltage 128 2016 R0
WINDOW 123 0 0 Left 0
WINDOW 39 0 0 Left 0
SYMATTR InstName V6
SYMATTR Value 1V
SYMBOL res 304 2032 R0
SYMATTR InstName R10
SYMATTR Value 10k
SYMBOL res 352 1984 R270
WINDOW 0 32 56 VTop 2
WINDOW 3 0 56 VBottom 2
SYMATTR InstName R11
SYMATTR Value 1072.32
SYMBOL res 464 2016 R0
SYMATTR InstName R12
SYMATTR Value 2k
SYMBOL res 208 2032 R0
SYMATTR InstName R13
SYMATTR Value 33k
SYMBOL g 608 2032 M0
SYMATTR InstName G1
SYMATTR Value 37.3e-3
TEXT -168 -64 Left 2 !.model Dideal D(Ron=0.1n Roff=1G Vfwd=0)
TEXT -168 -40 Left 2 !.model Dreal D(Ron=0.1n Roff=1G Vfwd=0.7)
TEXT 680 -80 Left 2 !.tran 20m
TEXT -192 -112 Left 2 ;Models
TEXT 656 -112 Left 2 ;Simulation Commands
TEXT 32 256 Left 5 ;Diodes
TEXT -32 384 Left 2 ;halfwave
TEXT 336 384 Left 2 ;fullbridge
TEXT 1520 256 Left 5 ;Zener Diodes
TEXT 680 -48 Left 2 ;.dc V2 -2 14 .01
TEXT -168 -16 Left 2 !.model Zideal D(Ron=0.1n Roff=1G Vfwd=0.7 Vrev=5.6V Rrev=0.1n)
TEXT 40 1256 Left 5 ;BJTs
TEXT 112 1368 Left 2 ;active
TEXT 464 1368 Left 2 ;saturation
TEXT 120 1896 Left 2 ;small signal
TEXT 72 2264 Left 2 ;using G is honestly easier, maybe one day I will make a proper symbol
RECTANGLE Normal 928 128 640 -96 2
RECTANGLE Normal 624 128 -192 -96 2
