Version 4
SHEET 1 880 680
WIRE 240 80 240 64
WIRE 128 176 112 176
WIRE 240 176 240 160
WIRE 240 176 208 176
WIRE 240 224 240 176
FLAG 240 64 C
FLAG 240 224 E
FLAG 112 176 B
SYMBOL voltage 112 176 R270
WINDOW 0 32 56 VTop 2
WINDOW 3 -32 56 VBottom 2
WINDOW 123 0 0 Left 0
WINDOW 39 0 0 Left 0
SYMATTR InstName V1
SYMATTR Value 0.7
SYMBOL voltage 240 64 R0
WINDOW 123 0 0 Left 0
WINDOW 39 0 0 Left 0
SYMATTR InstName V2
SYMATTR Value 0.2
